<?xml version="1.0" encoding="UTF-8"?>

<!-- generated on 2024-12-05 18:29:17 by Eclipse SUMO netedit Version 1.20.0
<configuration xmlns:xsi="http://www.w3.org/2001/XMLSchema-instance" xsi:noNamespaceSchemaLocation="http://sumo.dlr.de/xsd/neteditConfiguration.xsd">

    <input>
        <sumo-net-file value="map/highway.net.xml"/>
    </input>

    <output>
        <output-file value="map/highway.net.xml"/>
    </output>

    <processing>
        <geometry.min-radius.fix.railways value="false"/>
        <geometry.max-grade.fix value="false"/>
        <offset.disable-normalization value="true"/>
        <lefthand value="0"/>
    </processing>

    <junctions>
        <no-internal-links value="false"/>
        <no-turnarounds value="true"/>
        <junctions.corner-detail value="5"/>
        <junctions.limit-turn-speed value="5.50"/>
        <rectangular-lane-cut value="0"/>
    </junctions>

    <pedestrian>
        <walkingareas value="1"/>
    </pedestrian>

</configuration>
-->

<net version="1.20" junctionCornerDetail="5" walkingareas="true" limitTurnSpeed="5.50" xmlns:xsi="http://www.w3.org/2001/XMLSchema-instance" xsi:noNamespaceSchemaLocation="http://sumo.dlr.de/xsd/net_file.xsd">

    <location netOffset="0.00,0.00" convBoundary="98.00,0.00,550.00,0.00" origBoundary="-10000000000.00,-10000000000.00,10000000000.00,10000000000.00" projParameter="!"/>

    <edge id=":J0_w0" function="walkingarea">
        <lane id=":J0_w0_0" index="0" allow="pedestrian" speed="2.78" length="9.40" width="1.00" shape="98.00,-7.40 98.00,-8.40 98.00,2.00 98.00,1.00"/>
    </edge>
    <edge id=":J1_w0" function="walkingarea">
        <lane id=":J1_w0_0" index="0" allow="pedestrian" speed="2.78" length="9.40" width="1.00" shape="550.00,1.00 550.00,2.00 550.00,-8.40 550.00,-7.40"/>
    </edge>
    <edge id=":J2_0" function="internal">
        <lane id=":J2_0_0" index="0" allow="bicycle" speed="13.89" length="4.00" width="1.00" shape="502.00,0.50 498.00,0.50"/>
    </edge>
    <edge id=":J2_1" function="internal">
        <lane id=":J2_1_0" index="0" allow="bicycle" speed="13.89" length="4.00" width="1.00" shape="498.00,-6.90 502.00,-6.90"/>
        <lane id=":J2_1_1" index="1" disallow="pedestrian" speed="13.89" length="4.00" shape="498.00,-4.80 502.00,-4.80"/>
        <lane id=":J2_1_2" index="2" disallow="pedestrian" speed="13.89" length="4.00" shape="498.00,-1.60 502.00,-1.60"/>
    </edge>
    <edge id=":J2_c0" function="crossing" crossingEdges="-E0 E0">
        <lane id=":J2_c0_0" index="0" allow="pedestrian" speed="2.78" length="8.40" width="4.00" shape="500.00,1.00 500.00,-7.40" outlineShape="498.00,1.00 498.00,-7.40 502.00,-7.90 502.00,-8.40 498.00,-8.40 498.00,-7.40 502.00,-7.40 502.00,1.00 498.00,1.00"/>
    </edge>
    <edge id=":J2_w0" function="walkingarea">
        <lane id=":J2_w0_0" index="0" allow="pedestrian" speed="2.78" length="2.71" width="4.00" shape="502.00,1.00 498.00,1.00 498.00,2.00 502.00,2.00 502.00,1.00"/>
    </edge>
    <edge id=":J2_w1" function="walkingarea">
        <lane id=":J2_w1_0" index="0" allow="pedestrian" speed="2.78" length="2.71" width="4.00" shape="502.00,-7.40 502.00,-8.40 498.00,-8.40 498.00,-7.40 502.00,-7.40"/>
    </edge>

    <edge id="-E0" from="J2" to="J0" priority="-1">
        <lane id="-E0_0" index="0" allow="pedestrian" speed="13.89" length="400.00" width="1.00" shape="498.00,1.50 98.00,1.50"/>
        <lane id="-E0_1" index="1" allow="bicycle" speed="13.89" length="400.00" width="1.00" shape="498.00,0.50 98.00,0.50"/>
    </edge>
    <edge id="-E1" from="J1" to="J2" priority="-1">
        <lane id="-E1_0" index="0" allow="pedestrian" speed="13.89" length="48.00" width="1.00" shape="550.00,1.50 502.00,1.50"/>
        <lane id="-E1_1" index="1" allow="bicycle" speed="13.89" length="48.00" width="1.00" shape="550.00,0.50 502.00,0.50"/>
    </edge>
    <edge id="E0" from="J0" to="J2" priority="-1">
        <lane id="E0_0" index="0" allow="pedestrian" speed="13.89" length="400.00" width="1.00" shape="98.00,-7.90 498.00,-7.90"/>
        <lane id="E0_1" index="1" allow="bicycle" speed="13.89" length="400.00" width="1.00" shape="98.00,-6.90 498.00,-6.90"/>
        <lane id="E0_2" index="2" disallow="pedestrian" speed="13.89" length="400.00" shape="98.00,-4.80 498.00,-4.80"/>
        <lane id="E0_3" index="3" disallow="pedestrian" speed="13.89" length="400.00" shape="98.00,-1.60 498.00,-1.60"/>
    </edge>
    <edge id="E1" from="J2" to="J1" priority="-1">
        <lane id="E1_0" index="0" allow="pedestrian" speed="13.89" length="48.00" width="1.00" shape="502.00,-7.90 550.00,-7.90"/>
        <lane id="E1_1" index="1" allow="bicycle" speed="13.89" length="48.00" width="1.00" shape="502.00,-6.90 550.00,-6.90"/>
        <lane id="E1_2" index="2" disallow="pedestrian" speed="13.89" length="48.00" shape="502.00,-4.80 550.00,-4.80"/>
        <lane id="E1_3" index="3" disallow="pedestrian" speed="13.89" length="48.00" shape="502.00,-1.60 550.00,-1.60"/>
    </edge>

    <junction id="J0" type="dead_end" x="98.00" y="0.00" incLanes="-E0_0 -E0_1" intLanes="" shape="98.00,0.00 98.00,2.00 98.00,0.00"/>
    <junction id="J1" type="dead_end" x="550.00" y="0.00" incLanes="E1_0 E1_1 E1_2 E1_3" intLanes="" shape="550.00,0.00 550.00,-8.40 550.00,0.00"/>
    <junction id="J2" type="priority" x="500.00" y="0.00" incLanes="-E1_0 -E1_1 E0_0 E0_1 E0_2 E0_3 :J2_w0_0" intLanes=":J2_0_0 :J2_1_0 :J2_1_1 :J2_1_2 :J2_c0_0" shape="502.00,2.00 502.00,-8.40 498.00,-8.40 498.00,2.00">
        <request index="0" response="00000" foes="10000" cont="0"/>
        <request index="1" response="00000" foes="10000" cont="0"/>
        <request index="2" response="00000" foes="10000" cont="0"/>
        <request index="3" response="00000" foes="10000" cont="0"/>
        <request index="4" response="01111" foes="01111" cont="0"/>
    </junction>

    <connection from="-E1" to="-E0" fromLane="1" toLane="1" via=":J2_0_0" dir="s" state="M"/>
    <connection from="E0" to="E1" fromLane="1" toLane="1" via=":J2_1_0" dir="s" state="M"/>
    <connection from="E0" to="E1" fromLane="2" toLane="2" via=":J2_1_1" dir="s" state="M"/>
    <connection from="E0" to="E1" fromLane="3" toLane="3" via=":J2_1_2" dir="s" state="M"/>

    <connection from=":J2_0" to="-E0" fromLane="0" toLane="1" dir="s" state="M"/>
    <connection from=":J2_1" to="E1" fromLane="0" toLane="1" dir="s" state="M"/>
    <connection from=":J2_1" to="E1" fromLane="1" toLane="2" dir="s" state="M"/>
    <connection from=":J2_1" to="E1" fromLane="2" toLane="3" dir="s" state="M"/>

    <connection from=":J0_w0" to="E0" fromLane="0" toLane="0" dir="s" state="M"/>
    <connection from="-E0" to=":J0_w0" fromLane="0" toLane="0" dir="s" state="M"/>
    <connection from=":J1_w0" to="-E1" fromLane="0" toLane="0" dir="s" state="M"/>
    <connection from="E1" to=":J1_w0" fromLane="0" toLane="0" dir="s" state="M"/>
    <connection from=":J2_c0" to=":J2_w1" fromLane="0" toLane="0" dir="s" state="M"/>
    <connection from=":J2_w0" to=":J2_c0" fromLane="0" toLane="0" dir="s" state="m"/>
    <connection from=":J2_w0" to="-E0" fromLane="0" toLane="0" dir="s" state="M"/>
    <connection from="-E1" to=":J2_w0" fromLane="0" toLane="0" dir="s" state="M"/>
    <connection from=":J2_w1" to="E1" fromLane="0" toLane="0" dir="s" state="M"/>
    <connection from="E0" to=":J2_w1" fromLane="0" toLane="0" dir="s" state="M"/>
</net>
